  Page 1                                    Sun Dec  7 16:59:35 2025

  ******************************************************************
  *                           E P A N E T                          *
  *                   Hydraulic and Water Quality                  *
  *                   Analysis for Pipe Networks                   *
  *                         Version 2.2                            *
  ******************************************************************
  
  Analysis begun Sun Dec  7 16:59:35 2025

  Analysis ended Sun Dec  7 16:59:35 2025
